@<TRIPOS>MOLECULE
pharmacophore
13 0 0 0 0
SMALL
GASTEIGER

@<TRIPOS>ATOM
      1     0.730     0.671     0.616  H     1  0.000
      2    -3.173    -0.211    -0.960  H     1  0.000
      3    -0.776     0.356    -1.119  D     1  0.000
      4    -2.008    -0.537    -2.860  A     1  0.000
      5    -3.932    -3.045     0.773  A     1  0.000
      6    -2.038    -2.470    -0.370  A     1  0.000
      7    -2.847    -3.079     0.262  Ar    1  0.000
      8    -4.468     0.421    -0.442  Ar    1  0.000
      9    -5.100    -0.533     0.348  H     1  0.000
     10    -5.704     0.709     0.136  H     1  0.000
     11    -5.292     1.350    -0.393  H     1  0.000
     12    -4.261     1.474    -1.050  H     1  0.000
     13    -4.468     0.421    -0.442  Du    1  0.000
@<TRIPOS>BOND
